Version 4
SHEET 1 1392 680
WIRE -32 -208 -96 -208
WIRE 272 -208 112 -208
WIRE 48 -96 48 -144
WIRE 48 32 48 -16
WIRE 272 64 272 -208
WIRE -32 128 -96 128
WIRE 192 128 112 128
WIRE 384 128 336 128
WIRE 448 128 384 128
WIRE 912 128 528 128
WIRE 528 208 528 128
WIRE 448 224 448 128
WIRE 480 224 448 224
WIRE 48 240 48 192
WIRE 480 272 448 272
WIRE 448 304 448 272
WIRE 528 304 528 288
WIRE 528 304 448 304
WIRE 528 352 528 304
WIRE 912 352 912 128
WIRE 48 368 48 320
WIRE 624 416 528 416
WIRE 832 416 768 416
WIRE 1024 416 976 416
WIRE 1296 416 1168 416
WIRE 528 432 528 416
WIRE 384 448 384 128
WIRE 480 448 384 448
WIRE 480 496 448 496
WIRE 448 528 448 496
WIRE 528 528 528 512
WIRE 528 528 448 528
WIRE 528 576 528 528
WIRE 704 576 704 480
WIRE 1104 576 1104 480
FLAG 1104 576 0
FLAG 1296 416 out
IOPIN 1296 416 Out
FLAG 48 368 0
FLAG 48 32 0
FLAG -96 -208 in1
IOPIN -96 -208 In
FLAG -96 128 in2
IOPIN -96 128 In
FLAG 528 352 0
FLAG 704 576 0
FLAG 528 576 0
SYMBOL Integrator 1104 416 R0
SYMATTR InstName X1
SYMBOL bv 48 224 R0
SYMATTR InstName B1
SYMATTR Value V=cos(V(out))
SYMBOL bv 48 -112 R0
SYMATTR InstName B2
SYMATTR Value V=sin(V(out))
SYMBOL Multiplier 48 -208 R0
SYMATTR InstName X2
SYMBOL Multiplier 48 128 R0
SYMATTR InstName X3
SYMBOL Subtractor 272 128 M180
SYMATTR InstName X4
SYMBOL Adder 912 416 M180
SYMATTR InstName X5
SYMBOL e 528 192 R0
SYMATTR InstName E1
SYMATTR Value {alpha}
SYMBOL Integrator 704 416 R0
SYMATTR InstName X6
SYMBOL e 528 416 R0
SYMATTR InstName E2
SYMATTR Value {beta}
TEXT 576 -72 Left 0 !.param alpha = 10000
TEXT 576 -32 Left 0 !.param beta = 2000
