Version 4
SHEET 1 1252 680
WIRE 416 48 80 48
WIRE 592 48 496 48
WIRE 784 48 592 48
WIRE 1120 48 1072 48
WIRE 592 80 592 48
WIRE 784 96 688 96
WIRE 480 144 480 96
WIRE 592 176 592 144
WIRE 432 208 432 96
WIRE 432 208 224 208
WIRE 688 208 688 96
WIRE 688 208 432 208
WIRE 80 256 80 48
WIRE 224 256 224 208
WIRE 0 272 -128 272
WIRE 0 336 -128 336
WIRE 80 432 80 336
WIRE 224 432 224 336
FLAG 592 176 0
FLAG 480 144 0
FLAG -128 272 in
IOPIN -128 272 In
FLAG -128 336 clk
IOPIN -128 336 In
FLAG 80 432 0
FLAG 224 432 0
FLAG 1120 48 out
IOPIN 1120 48 Out
SYMBOL sw 400 48 R270
WINDOW 3 13 103 Left 0
SYMATTR Value VCS1
SYMATTR InstName S1
SYMBOL cap 576 80 R0
SYMATTR InstName C1
SYMATTR Value 100pF
SYMBOL S&H 928 48 R0
SYMATTR InstName X1
SYMBOL bv 80 240 R0
SYMATTR InstName B1
SYMATTR Value V=V(in)
SYMBOL bv 224 240 R0
SYMATTR InstName B2
SYMATTR Value V=V(clk)
TEXT -72 -104 Left 0 !.model VCS1 SW(Ron=1E-9 Roff=1E12 Vt=0)
