Version 4
SHEET 1 1420 680
WIRE 512 80 432 80
WIRE 768 80 656 80
WIRE 432 224 432 80
WIRE 592 224 592 144
WIRE 352 256 288 256
WIRE 432 336 432 304
WIRE 592 336 592 304
FLAG 288 256 In
IOPIN 288 256 In
FLAG 432 336 0
FLAG 592 336 0
FLAG 768 80 Out
IOPIN 768 80 Out
SYMBOL bv 432 208 R0
WINDOW 3 -18 176 Left 0
SYMATTR Value V=Floor(V(In)*({quadcounts})/({4*pi})+({SWE})/360+0.25)
SYMATTR InstName B1
SYMBOL bv 592 208 R0
WINDOW 3 -92 209 Left 0
SYMATTR Value V=Floor(V(In)*({quadcounts})/({4*pi})-({SWE})/360+0.75)
SYMATTR InstName B2
SYMBOL Adder 592 80 R0
SYMATTR InstName X1
