Version 4
SHEET 1 880 680
WIRE 208 160 128 160
FLAG 128 160 pin1
FLAG 208 160 pin2
