Version 4
SHEET 1 880 872
WIRE 96 -16 -448 -16
WIRE 544 -16 96 -16
WIRE -80 16 -128 16
WIRE -128 48 -128 16
WIRE -80 48 -80 16
WIRE -688 112 -768 112
WIRE -688 160 -752 160
WIRE -128 160 -128 128
WIRE -448 176 -448 -16
WIRE 96 176 96 -16
WIRE -528 240 -624 240
WIRE -208 240 -384 240
WIRE 16 240 -48 240
WIRE 352 240 160 240
WIRE 544 240 544 -16
WIRE 544 240 512 240
WIRE 704 240 544 240
WIRE 352 272 272 272
WIRE -624 352 -624 240
WIRE -128 352 -128 320
WIRE 272 352 272 272
WIRE -624 464 -624 432
WIRE -128 464 -128 432
WIRE 272 464 272 432
FLAG -768 112 in
IOPIN -768 112 In
FLAG 704 240 out
IOPIN 704 240 Out
FLAG -752 160 clk
IOPIN -752 160 In
FLAG -80 48 0
FLAG -128 464 0
FLAG -624 464 0
FLAG 272 464 0
SYMBOL Delay 432 240 R0
SYMATTR InstName X1
SYMBOL Adder 96 240 M180
SYMATTR InstName X2
SYMBOL Subtractor -448 240 M180
SYMATTR InstName X4
SYMBOL Clamp -128 240 R0
SYMATTR InstName X3
SYMBOL bv -128 144 R180
WINDOW 0 24 104 Left 0
WINDOW 3 54 57 Left 0
SYMATTR InstName B1
SYMATTR Value V={Slew_up}/{Fs}
SYMBOL bv -128 448 R180
WINDOW 0 24 104 Left 0
WINDOW 3 51 54 Left 0
SYMATTR InstName B2
SYMATTR Value V={Slew_down}/{Fs}
SYMBOL bv -624 336 R0
SYMATTR InstName B3
SYMATTR Value V=V(in)
SYMBOL bv 272 336 R0
SYMATTR InstName B4
SYMATTR Value V=V(clk)
