Version 4
SHEET 1 2072 680
WIRE 1120 96 544 96
WIRE 1120 144 752 144
WIRE 192 160 128 160
WIRE 384 160 336 160
WIRE 1120 192 944 192
WIRE 64 272 -16 272
WIRE 128 272 128 160
WIRE 272 272 272 224
WIRE 544 288 544 96
WIRE 752 288 752 144
WIRE 944 288 944 192
WIRE 64 336 -16 336
WIRE 128 400 128 352
WIRE 544 416 544 368
WIRE 752 416 752 368
WIRE 944 416 944 368
FLAG -16 272 In1
IOPIN -16 272 In
FLAG -16 336 In2
IOPIN -16 336 In
FLAG 544 416 0
FLAG 752 416 0
FLAG 944 416 0
FLAG 1120 96 Out1
IOPIN 1120 96 Out
FLAG 1120 144 Out2
IOPIN 1120 144 Out
FLAG 1120 192 Out3
IOPIN 1120 192 Out
FLAG 128 400 0
FLAG 272 272 0
FLAG 384 160 Angle
SYMBOL bv 544 272 R0
WINDOW 3 22 191 Left 0
SYMATTR Value V = V(In1) * cos(V(Angle))
SYMATTR InstName B1
SYMBOL bv 752 272 R0
WINDOW 3 -4 223 Left 0
SYMATTR Value V = V(In1) * cos(V(Angle) - 2 * pi / 3)
SYMATTR InstName B2
SYMBOL bv 944 272 R0
WINDOW 3 2 254 Left 0
SYMATTR Value V = V(In1) * cos(V(Angle) - 4 * pi / 3)
SYMATTR InstName B3
SYMBOL bv 128 256 R0
SYMATTR InstName B4
SYMATTR Value V=2*3.1415927*V(In2)
SYMBOL Integrator 272 160 R0
SYMATTR InstName X1
